
     RDKit          3D

147149  0  0  0  0  0  0  0  0999 V2000
    5.1440   -0.7120  -25.1340 N   0  0  0  0  0  0  0  0  0  0  0  0
    4.5080   -1.4730  -23.9950 C   0  0  2  0  0  0  0  0  0  0  0  0
    3.1740   -2.0270  -24.5440 C   0  0  0  0  0  0  0  0  0  0  0  0
    2.6040   -1.4350  -25.4540 O   0  0  0  0  0  0  0  0  0  0  0  0
    4.2580   -0.6000  -22.7330 C   0  0  2  0  0  0  0  0  0  0  0  0
    3.4520   -1.2550  -21.7720 O   0  0  0  0  0  0  0  0  0  0  0  0
    3.6050    0.7550  -22.9940 C   0  0  0  0  0  0  0  0  0  0  0  0
    6.0630   -0.3470  -24.9230 H   0  0  0  0  0  0  0  0  0  0  0  0
    5.1930   -1.3190  -25.9400 H   0  0  0  0  0  0  0  0  0  0  0  0
    4.5930    0.0860  -25.4570 H   0  0  0  0  0  0  0  0  0  0  0  0
    5.1730   -2.3050  -23.7560 H   0  0  0  0  0  0  0  0  0  0  0  0
    5.2130   -0.4040  -22.2400 H   0  0  0  0  0  0  0  0  0  0  0  0
    3.8820   -2.0300  -21.4050 H   0  0  0  0  0  0  0  0  0  0  0  0
    3.4960    1.2960  -22.0460 H   0  0  0  0  0  0  0  0  0  0  0  0
    4.2060    1.3730  -23.6640 H   0  0  0  0  0  0  0  0  0  0  0  0
    2.6040    0.6550  -23.4270 H   0  0  0  0  0  0  0  0  0  0  0  0
    2.7360   -3.1840  -24.0320 N   0  0  0  0  0  0  0  0  0  0  0  0
    1.4530   -3.7860  -24.3910 C   0  0  2  0  0  0  0  0  0  0  0  0
    0.4610   -3.5310  -23.2560 C   0  0  0  0  0  0  0  0  0  0  0  0
    0.8530   -3.4890  -22.0890 O   0  0  0  0  0  0  0  0  0  0  0  0
    1.5940   -5.2980  -24.5660 C   0  0  0  0  0  0  0  0  0  0  0  0
    2.5430   -5.7180  -25.6890 C   0  0  0  0  0  0  0  0  0  0  0  0
    2.7070   -7.2450  -25.7730 C   0  0  0  0  0  0  0  0  0  0  0  0
    3.3470   -7.8970  -24.5280 C   0  0  0  0  0  0  0  0  0  0  0  0
    3.0860   -9.3530  -24.4780 N   0  0  0  0  0  0  0  0  0  0  0  0
    3.2490   -3.6450  -23.2830 H   0  0  0  0  0  0  0  0  0  0  0  0
    1.0710   -3.3370  -25.3050 H   0  0  0  0  0  0  0  0  0  0  0  0
    0.6130   -5.7300  -24.7550 H   0  0  0  0  0  0  0  0  0  0  0  0
    1.9030   -5.7040  -23.6070 H   0  0  0  0  0  0  0  0  0  0  0  0
    3.5140   -5.2450  -25.5540 H   0  0  0  0  0  0  0  0  0  0  0  0
    2.1280   -5.3580  -26.6360 H   0  0  0  0  0  0  0  0  0  0  0  0
    3.3140   -7.4630  -26.6540 H   0  0  0  0  0  0  0  0  0  0  0  0
    1.7290   -7.6860  -25.9770 H   0  0  0  0  0  0  0  0  0  0  0  0
    2.8840   -7.5140  -23.6220 H   0  0  0  0  0  0  0  0  0  0  0  0
    4.4090   -7.6590  -24.4640 H   0  0  0  0  0  0  0  0  0  0  0  0
    3.2280   -9.8380  -25.3570 H   0  0  0  0  0  0  0  0  0  0  0  0
    3.5320   -9.8240  -23.7120 H   0  0  0  0  0  0  0  0  0  0  0  0
    2.0640   -9.4540  -24.2890 H   0  0  0  0  0  0  0  0  0  0  0  0
   -0.8070   -3.3950  -23.6290 N   0  0  0  0  0  0  0  0  0  0  0  0
   -1.9590   -3.2170  -22.7640 C   0  0  2  0  0  0  0  0  0  0  0  0
   -3.0490   -4.1120  -23.3850 C   0  0  0  0  0  0  0  0  0  0  0  0
   -2.9420   -4.4710  -24.5640 O   0  0  0  0  0  0  0  0  0  0  0  0
   -2.3690   -1.7270  -22.8140 C   0  0  0  0  0  0  0  0  0  0  0  0
   -1.2470   -0.7320  -22.4570 C   0  0  0  0  0  0  0  0  0  0  0  0
   -1.5400    0.6770  -22.9670 C   0  0  0  0  0  0  0  0  0  0  0  0
   -1.3990    0.9340  -24.1580 O   0  0  0  0  0  0  0  0  0  0  0  0
   -1.9280    1.6020  -22.0980 N   0  0  0  0  0  0  0  0  0  0  0  0
   -1.0640   -3.4380  -24.6170 H   0  0  0  0  0  0  0  0  0  0  0  0
   -1.7350   -3.5380  -21.7420 H   0  0  0  0  0  0  0  0  0  0  0  0
   -3.2090   -1.5550  -22.1430 H   0  0  0  0  0  0  0  0  0  0  0  0
   -2.7310   -1.5090  -23.8210 H   0  0  0  0  0  0  0  0  0  0  0  0
   -0.3290   -1.0280  -22.9540 H   0  0  0  0  0  0  0  0  0  0  0  0
   -1.0210   -0.7380  -21.3920 H   0  0  0  0  0  0  0  0  0  0  0  0
   -2.0590    2.5540  -22.4140 H   0  0  0  0  0  0  0  0  0  0  0  0
   -2.0580    1.3850  -21.1230 H   0  0  0  0  0  0  0  0  0  0  0  0
   -4.0780   -4.4510  -22.5960 N   0  0  0  0  0  0  0  0  0  0  0  0
   -5.2570   -5.2110  -23.0530 C   0  0  2  0  0  0  0  0  0  0  0  0
   -4.8860   -6.5590  -23.7130 C   0  0  0  0  0  0  0  0  0  0  0  0
   -5.2860   -6.8190  -24.8520 O   0  0  0  0  0  0  0  0  0  0  0  0
   -6.1190   -4.3300  -23.9990 C   0  0  0  0  0  0  0  0  0  0  0  0
   -6.6050   -3.0000  -23.3840 C   0  0  0  0  0  0  0  0  0  0  0  0
   -7.4220   -2.1970  -24.3890 C   0  0  0  0  0  0  0  0  0  0  0  0
   -8.6610   -2.4080  -24.3970 O   0  0  0  0  0  0  0  0  0  0  0  0
   -6.7940   -1.4150  -25.1400 O   0  0  0  0  0  0  0  0  0  0  0  0
   -4.0850   -4.1280  -21.6420 H   0  0  0  0  0  0  0  0  0  0  0  0
   -5.8650   -5.4550  -22.1810 H   0  0  0  0  0  0  0  0  0  0  0  0
   -6.9860   -4.8930  -24.3500 H   0  0  0  0  0  0  0  0  0  0  0  0
   -5.5670   -4.1120  -24.9120 H   0  0  0  0  0  0  0  0  0  0  0  0
   -5.7700   -2.3780  -23.0630 H   0  0  0  0  0  0  0  0  0  0  0  0
   -7.2260   -3.1710  -22.5030 H   0  0  0  0  0  0  0  0  0  0  0  0
   -4.0730   -7.3710  -23.0190 N   0  0  0  0  0  0  0  0  0  0  0  0
   -3.5880   -8.6390  -23.5700 C   0  0  2  0  0  0  0  0  0  0  0  0
   -4.5960   -9.7410  -23.2080 C   0  0  0  0  0  0  0  0  0  0  0  0
   -4.6780  -10.1160  -22.0280 O   0  0  0  0  0  0  0  0  0  0  0  0
   -2.1480   -8.9280  -23.0950 C   0  0  0  0  0  0  0  0  0  0  0  0
   -1.5180  -10.1770  -23.7580 C   0  0  0  0  0  0  0  0  0  0  0  0
   -0.0110  -10.2620  -23.5420 C   0  0  0  0  0  0  0  0  0  0  0  0
    0.6560   -9.2480  -23.8320 O   0  0  0  0  0  0  0  0  0  0  0  0
    0.5150  -11.3410  -23.1850 O   0  0  0  0  0  0  0  0  0  0  0  0
   -3.8520   -7.1740  -22.0610 H   0  0  0  0  0  0  0  0  0  0  0  0
   -3.5390   -8.5460  -24.6520 H   0  0  0  0  0  0  0  0  0  0  0  0
   -2.1380   -9.0740  -22.0170 H   0  0  0  0  0  0  0  0  0  0  0  0
   -1.5300   -8.0550  -23.3030 H   0  0  0  0  0  0  0  0  0  0  0  0
   -1.6610  -10.1250  -24.8370 H   0  0  0  0  0  0  0  0  0  0  0  0
   -1.9840  -11.0970  -23.4150 H   0  0  0  0  0  0  0  0  0  0  0  0
   -5.3450  -10.2080  -24.2190 N   0  0  0  0  0  0  0  0  0  0  0  0
   -6.3780  -11.2430  -24.0880 C   0  0  2  0  0  0  0  0  0  0  0  0
   -5.8730  -12.4620  -24.8550 C   0  0  0  0  0  0  0  0  0  0  0  0
   -5.4590  -12.3200  -26.0140 O   0  0  0  0  0  0  0  0  0  0  0  0
   -7.7430  -10.7510  -24.6280 C   0  0  0  0  0  0  0  0  0  0  0  0
   -8.3710   -9.5850  -23.8810 C   0  0  0  0  0  0  0  0  0  0  0  0
   -9.0030   -9.7860  -22.6390 C   0  0  0  0  0  0  0  0  0  0  0  0
   -8.2130   -8.2730  -24.3590 C   0  0  0  0  0  0  0  0  0  0  0  0
   -9.4960   -8.6990  -21.9170 C   0  0  0  0  0  0  0  0  0  0  0  0
   -8.7360   -7.2020  -23.6460 C   0  0  0  0  0  0  0  0  0  0  0  0
   -9.3650   -7.4090  -22.4260 C   0  0  0  0  0  0  0  0  0  0  0  0
   -5.1440   -9.8870  -25.1600 H   0  0  0  0  0  0  0  0  0  0  0  0
   -6.4890  -11.5300  -23.0400 H   0  0  0  0  0  0  0  0  0  0  0  0
   -8.4540  -11.5800  -24.5780 H   0  0  0  0  0  0  0  0  0  0  0  0
   -7.6700  -10.5080  -25.6900 H   0  0  0  0  0  0  0  0  0  0  0  0
   -9.0900  -10.7790  -22.2190 H   0  0  0  0  0  0  0  0  0  0  0  0
   -7.6750   -8.0870  -25.2770 H   0  0  0  0  0  0  0  0  0  0  0  0
   -9.9600   -8.8660  -20.9560 H   0  0  0  0  0  0  0  0  0  0  0  0
   -8.6390   -6.1950  -24.0270 H   0  0  0  0  0  0  0  0  0  0  0  0
   -9.7390   -6.5610  -21.8720 H   0  0  0  0  0  0  0  0  0  0  0  0
   -5.7340  -13.5490  -24.0690 N   0  0  0  0  0  0  0  0  0  0  0  0
   -5.5640  -14.9830  -24.3350 C   0  0  2  0  0  0  0  0  0  0  0  0
   -6.8820  -15.6140  -23.8550 C   0  0  0  0  0  0  0  0  0  0  0  0
   -7.5380  -15.0490  -22.9690 O   0  0  0  0  0  0  0  0  0  0  0  0
   -4.5380  -15.6330  -23.3660 C   0  0  0  0  0  0  0  0  0  0  0  0
   -3.1000  -15.1650  -23.4000 C   0  0  0  0  0  0  0  0  0  0  0  0
   -2.7280  -14.0430  -22.6360 C   0  0  0  0  0  0  0  0  0  0  0  0
   -2.1190  -15.8830  -24.1180 C   0  0  0  0  0  0  0  0  0  0  0  0
   -1.3870  -13.6310  -22.6070 C   0  0  0  0  0  0  0  0  0  0  0  0
   -0.7800  -15.4450  -24.1160 C   0  0  0  0  0  0  0  0  0  0  0  0
   -0.4190  -14.3100  -23.3690 C   0  0  0  0  0  0  0  0  0  0  0  0
    0.8550  -13.8330  -23.4120 O   0  0  0  0  0  0  0  0  0  0  0  0
   -6.0970  -13.4180  -23.1360 H   0  0  0  0  0  0  0  0  0  0  0  0
   -5.3630  -15.1900  -25.3890 H   0  0  0  0  0  0  0  0  0  0  0  0
   -4.5260  -16.7110  -23.5390 H   0  0  0  0  0  0  0  0  0  0  0  0
   -4.8690  -15.5220  -22.3310 H   0  0  0  0  0  0  0  0  0  0  0  0
   -3.4610  -13.4920  -22.0650 H   0  0  0  0  0  0  0  0  0  0  0  0
   -2.3960  -16.7460  -24.7040 H   0  0  0  0  0  0  0  0  0  0  0  0
   -1.1100  -12.7700  -22.0160 H   0  0  0  0  0  0  0  0  0  0  0  0
   -0.0330  -15.9610  -24.7030 H   0  0  0  0  0  0  0  0  0  0  0  0
    0.8300  -12.8650  -23.2330 H   0  0  0  0  0  0  0  0  0  0  0  0
   -7.2890  -16.7490  -24.4210 N   0  0  0  0  0  0  0  0  0  0  0  0
   -8.6190  -17.3170  -24.2390 C   0  0  2  0  0  0  0  0  0  0  0  0
   -8.6090  -18.8310  -24.4820 C   0  0  0  0  0  0  0  0  0  0  0  0
   -7.4990  -19.4260  -24.5600 O   0  0  0  0  0  0  0  0  0  0  0  0
   -9.7360  -19.3750  -24.5030 O   0  0  0  0  0  0  0  0  0  0  0  0
   -9.6830  -16.4900  -25.0270 C   0  0  0  0  0  0  0  0  0  0  0  0
   -9.1860  -15.8840  -26.3330 C   0  0  0  0  0  0  0  0  0  0  0  0
   -9.3190  -16.5720  -27.5520 C   0  0  0  0  0  0  0  0  0  0  0  0
   -8.4960  -14.6540  -26.3060 C   0  0  0  0  0  0  0  0  0  0  0  0
   -8.7110  -16.0430  -28.7070 C   0  0  0  0  0  0  0  0  0  0  0  0
   -7.8020  -14.1950  -27.4370 C   0  0  0  0  0  0  0  0  0  0  0  0
   -7.9050  -14.8970  -28.6380 C   0  0  0  0  0  0  0  0  0  0  0  0
   -6.7470  -17.2370  -25.1240 H   0  0  0  0  0  0  0  0  0  0  0  0
   -8.8780  -17.2460  -23.1810 H   0  0  0  0  0  0  0  0  0  0  0  0
  -10.5730  -17.0880  -25.2250 H   0  0  0  0  0  0  0  0  0  0  0  0
  -10.0240  -15.6720  -24.3940 H   0  0  0  0  0  0  0  0  0  0  0  0
   -9.8570  -17.5090  -27.5880 H   0  0  0  0  0  0  0  0  0  0  0  0
   -8.4310  -14.0900  -25.3890 H   0  0  0  0  0  0  0  0  0  0  0  0
   -8.8250  -16.5050  -29.6620 H   0  0  0  0  0  0  0  0  0  0  0  0
   -7.2140  -13.2940  -27.4010 H   0  0  0  0  0  0  0  0  0  0  0  0
   -7.3720  -14.5430  -29.5020 H   0  0  0  0  0  0  0  0  0  0  0  0
  1  2  1  0
  1  8  1  0
  1  9  1  0
  1 10  1  0
  2  3  1  0
  2  5  1  0
  2 11  1  1
  3  4  2  0
  3 17  1  0
  5  6  1  0
  5  7  1  0
  5 12  1  1
  6 13  1  0
  7 14  1  0
  7 15  1  0
  7 16  1  0
 17 18  1  0
 17 26  1  0
 18 19  1  0
 18 21  1  0
 18 27  1  6
 19 20  2  0
 19 39  1  0
 21 22  1  0
 21 28  1  0
 21 29  1  0
 22 23  1  0
 22 30  1  0
 22 31  1  0
 23 24  1  0
 23 32  1  0
 23 33  1  0
 24 25  1  0
 24 34  1  0
 24 35  1  0
 25 36  1  0
 25 37  1  0
 25 38  1  0
 39 40  1  0
 39 48  1  0
 40 41  1  0
 40 43  1  0
 40 49  1  1
 41 42  2  0
 41 56  1  0
 43 44  1  0
 43 50  1  0
 43 51  1  0
 44 45  1  0
 44 52  1  0
 44 53  1  0
 45 46  2  0
 45 47  1  0
 47 54  1  0
 47 55  1  0
 56 57  1  0
 56 65  1  0
 57 58  1  0
 57 60  1  0
 57 66  1  1
 58 59  2  0
 58 71  1  0
 60 61  1  0
 60 67  1  0
 60 68  1  0
 61 62  1  0
 61 69  1  0
 61 70  1  0
 62 63  1  0
 62 64  2  0
 71 72  1  0
 71 80  1  0
 72 73  1  0
 72 75  1  0
 72 81  1  6
 73 74  2  0
 73 86  1  0
 75 76  1  0
 75 82  1  0
 75 83  1  0
 76 77  1  0
 76 84  1  0
 76 85  1  0
 77 78  1  0
 77 79  2  0
 86 87  1  0
 86 97  1  0
 87 88  1  0
 87 90  1  0
 87 98  1  1
 88 89  2  0
 88106  1  0
 90 91  1  0
 90 99  1  0
 90100  1  0
 91 92  2  0
 91 93  1  0
 92 94  1  0
 92101  1  0
 93 95  2  0
 93102  1  0
 94 96  2  0
 94103  1  0
 95 96  1  0
 95104  1  0
 96105  1  0
106107  1  0
106118  1  0
107108  1  0
107110  1  0
107119  1  6
108109  2  0
108127  1  0
110111  1  0
110120  1  0
110121  1  0
111112  2  0
111113  1  0
112114  1  0
112122  1  0
113115  2  0
113123  1  0
114116  2  0
114124  1  0
115116  1  0
115125  1  0
116117  1  0
117126  1  0
127128  1  0
127139  1  0
128129  1  0
128132  1  0
128140  1  1
129130  1  0
129131  2  0
132133  1  0
132141  1  0
132142  1  0
133134  2  0
133135  1  0
134136  1  0
134143  1  0
135137  2  0
135144  1  0
136138  2  0
136145  1  0
137138  1  0
137146  1  0
138147  1  0
M  CHG  5   1   1  25   1  63  -1  78  -1 130  -1
M  END
$$$$
