
     RDKit          3D

144145  0  0  0  0  0  0  0  0999 V2000
    5.1440   -0.7120  -25.1340 N   0  0  0  0  0  0  0  0  0  0  0  0
    4.5080   -1.4730  -23.9950 C   0  0  2  0  0  0  0  0  0  0  0  0
    3.1740   -2.0270  -24.5440 C   0  0  0  0  0  0  0  0  0  0  0  0
    2.6040   -1.4350  -25.4540 O   0  0  0  0  0  0  0  0  0  0  0  0
    4.2580   -0.6000  -22.7330 C   0  0  2  0  0  0  0  0  0  0  0  0
    3.4520   -1.2550  -21.7720 O   0  0  0  0  0  0  0  0  0  0  0  0
    3.6050    0.7550  -22.9940 C   0  0  0  0  0  0  0  0  0  0  0  0
    6.0630   -0.3470  -24.9230 H   0  0  0  0  0  0  0  0  0  0  0  0
    5.1930   -1.3190  -25.9400 H   0  0  0  0  0  0  0  0  0  0  0  0
    4.5930    0.0860  -25.4570 H   0  0  0  0  0  0  0  0  0  0  0  0
    5.1730   -2.3050  -23.7560 H   0  0  0  0  0  0  0  0  0  0  0  0
    5.2130   -0.4040  -22.2400 H   0  0  0  0  0  0  0  0  0  0  0  0
    3.8820   -2.0300  -21.4050 H   0  0  0  0  0  0  0  0  0  0  0  0
    3.4960    1.2960  -22.0460 H   0  0  0  0  0  0  0  0  0  0  0  0
    4.2060    1.3730  -23.6640 H   0  0  0  0  0  0  0  0  0  0  0  0
    2.6040    0.6550  -23.4270 H   0  0  0  0  0  0  0  0  0  0  0  0
    2.7360   -3.1840  -24.0320 N   0  0  0  0  0  0  0  0  0  0  0  0
    1.4530   -3.7860  -24.3910 C   0  0  2  0  0  0  0  0  0  0  0  0
    0.4610   -3.5310  -23.2560 C   0  0  0  0  0  0  0  0  0  0  0  0
    0.8530   -3.4890  -22.0890 O   0  0  0  0  0  0  0  0  0  0  0  0
    1.5940   -5.2980  -24.5660 C   0  0  0  0  0  0  0  0  0  0  0  0
    2.5430   -5.7180  -25.6890 C   0  0  0  0  0  0  0  0  0  0  0  0
    2.7070   -7.2450  -25.7730 C   0  0  0  0  0  0  0  0  0  0  0  0
    3.3470   -7.8970  -24.5280 C   0  0  0  0  0  0  0  0  0  0  0  0
    3.0860   -9.3530  -24.4780 N   0  0  0  0  0  0  0  0  0  0  0  0
    3.2490   -3.6450  -23.2830 H   0  0  0  0  0  0  0  0  0  0  0  0
    1.0710   -3.3370  -25.3050 H   0  0  0  0  0  0  0  0  0  0  0  0
    0.6130   -5.7300  -24.7550 H   0  0  0  0  0  0  0  0  0  0  0  0
    1.9030   -5.7040  -23.6070 H   0  0  0  0  0  0  0  0  0  0  0  0
    3.5140   -5.2450  -25.5540 H   0  0  0  0  0  0  0  0  0  0  0  0
    2.1280   -5.3580  -26.6360 H   0  0  0  0  0  0  0  0  0  0  0  0
    3.3140   -7.4630  -26.6540 H   0  0  0  0  0  0  0  0  0  0  0  0
    1.7290   -7.6860  -25.9770 H   0  0  0  0  0  0  0  0  0  0  0  0
    2.8840   -7.5140  -23.6220 H   0  0  0  0  0  0  0  0  0  0  0  0
    4.4090   -7.6590  -24.4640 H   0  0  0  0  0  0  0  0  0  0  0  0
    3.2280   -9.8380  -25.3570 H   0  0  0  0  0  0  0  0  0  0  0  0
    3.5320   -9.8240  -23.7120 H   0  0  0  0  0  0  0  0  0  0  0  0
    2.0640   -9.4540  -24.2890 H   0  0  0  0  0  0  0  0  0  0  0  0
   -0.8070   -3.3950  -23.6290 N   0  0  0  0  0  0  0  0  0  0  0  0
   -1.9590   -3.2170  -22.7640 C   0  0  2  0  0  0  0  0  0  0  0  0
   -3.0490   -4.1120  -23.3850 C   0  0  0  0  0  0  0  0  0  0  0  0
   -2.9420   -4.4710  -24.5640 O   0  0  0  0  0  0  0  0  0  0  0  0
   -2.3690   -1.7270  -22.8140 C   0  0  0  0  0  0  0  0  0  0  0  0
   -1.2470   -0.7320  -22.4570 C   0  0  0  0  0  0  0  0  0  0  0  0
   -1.5400    0.6770  -22.9670 C   0  0  0  0  0  0  0  0  0  0  0  0
   -1.3990    0.9340  -24.1580 O   0  0  0  0  0  0  0  0  0  0  0  0
   -1.9280    1.6020  -22.0980 N   0  0  0  0  0  0  0  0  0  0  0  0
   -1.0640   -3.4380  -24.6170 H   0  0  0  0  0  0  0  0  0  0  0  0
   -1.7350   -3.5380  -21.7420 H   0  0  0  0  0  0  0  0  0  0  0  0
   -3.2090   -1.5550  -22.1430 H   0  0  0  0  0  0  0  0  0  0  0  0
   -2.7310   -1.5090  -23.8210 H   0  0  0  0  0  0  0  0  0  0  0  0
   -0.3290   -1.0280  -22.9540 H   0  0  0  0  0  0  0  0  0  0  0  0
   -1.0210   -0.7380  -21.3920 H   0  0  0  0  0  0  0  0  0  0  0  0
   -2.0590    2.5540  -22.4140 H   0  0  0  0  0  0  0  0  0  0  0  0
   -2.0580    1.3850  -21.1230 H   0  0  0  0  0  0  0  0  0  0  0  0
   -4.0780   -4.4510  -22.5960 N   0  0  0  0  0  0  0  0  0  0  0  0
   -5.2570   -5.2110  -23.0530 C   0  0  2  0  0  0  0  0  0  0  0  0
   -4.8860   -6.5590  -23.7130 C   0  0  0  0  0  0  0  0  0  0  0  0
   -5.2860   -6.8190  -24.8520 O   0  0  0  0  0  0  0  0  0  0  0  0
   -6.1190   -4.3300  -23.9990 C   0  0  0  0  0  0  0  0  0  0  0  0
   -6.6050   -3.0000  -23.3840 C   0  0  0  0  0  0  0  0  0  0  0  0
   -7.4220   -2.1970  -24.3890 C   0  0  0  0  0  0  0  0  0  0  0  0
   -8.6610   -2.4080  -24.3970 O   0  0  0  0  0  0  0  0  0  0  0  0
   -6.7940   -1.4150  -25.1400 O   0  0  0  0  0  0  0  0  0  0  0  0
   -4.0850   -4.1280  -21.6420 H   0  0  0  0  0  0  0  0  0  0  0  0
   -5.8650   -5.4550  -22.1810 H   0  0  0  0  0  0  0  0  0  0  0  0
   -6.9860   -4.8930  -24.3500 H   0  0  0  0  0  0  0  0  0  0  0  0
   -5.5670   -4.1120  -24.9120 H   0  0  0  0  0  0  0  0  0  0  0  0
   -5.7700   -2.3780  -23.0630 H   0  0  0  0  0  0  0  0  0  0  0  0
   -7.2260   -3.1710  -22.5030 H   0  0  0  0  0  0  0  0  0  0  0  0
   -4.0730   -7.3710  -23.0190 N   0  0  0  0  0  0  0  0  0  0  0  0
   -3.5880   -8.6390  -23.5700 C   0  0  2  0  0  0  0  0  0  0  0  0
   -4.5960   -9.7410  -23.2080 C   0  0  0  0  0  0  0  0  0  0  0  0
   -4.6780  -10.1160  -22.0280 O   0  0  0  0  0  0  0  0  0  0  0  0
   -2.1480   -8.9280  -23.0950 C   0  0  0  0  0  0  0  0  0  0  0  0
   -1.5180  -10.1770  -23.7580 C   0  0  0  0  0  0  0  0  0  0  0  0
   -0.0110  -10.2620  -23.5420 C   0  0  0  0  0  0  0  0  0  0  0  0
    0.6560   -9.2480  -23.8320 O   0  0  0  0  0  0  0  0  0  0  0  0
    0.5150  -11.3410  -23.1850 O   0  0  0  0  0  0  0  0  0  0  0  0
   -3.8520   -7.1740  -22.0610 H   0  0  0  0  0  0  0  0  0  0  0  0
   -3.5390   -8.5460  -24.6520 H   0  0  0  0  0  0  0  0  0  0  0  0
   -2.1380   -9.0740  -22.0170 H   0  0  0  0  0  0  0  0  0  0  0  0
   -1.5300   -8.0550  -23.3030 H   0  0  0  0  0  0  0  0  0  0  0  0
   -1.6610  -10.1250  -24.8370 H   0  0  0  0  0  0  0  0  0  0  0  0
   -1.9840  -11.0970  -23.4150 H   0  0  0  0  0  0  0  0  0  0  0  0
   -5.3450  -10.2080  -24.2190 N   0  0  0  0  0  0  0  0  0  0  0  0
   -6.3780  -11.2430  -24.0880 C   0  0  2  0  0  0  0  0  0  0  0  0
   -5.9150  -12.4820  -24.8820 C   0  0  0  0  0  0  0  0  0  0  0  0
   -5.4590  -12.3200  -26.0140 O   0  0  0  0  0  0  0  0  0  0  0  0
   -7.7430  -10.7510  -24.6280 C   0  0  0  0  0  0  0  0  0  0  0  0
   -8.3710   -9.5850  -23.8810 C   0  0  0  0  0  0  0  0  0  0  0  0
   -9.0030   -9.7860  -22.6390 C   0  0  0  0  0  0  0  0  0  0  0  0
   -8.2130   -8.2730  -24.3590 C   0  0  0  0  0  0  0  0  0  0  0  0
   -9.4960   -8.6990  -21.9170 C   0  0  0  0  0  0  0  0  0  0  0  0
   -8.7360   -7.2020  -23.6460 C   0  0  0  0  0  0  0  0  0  0  0  0
   -9.3650   -7.4090  -22.4260 C   0  0  0  0  0  0  0  0  0  0  0  0
   -5.1440   -9.8870  -25.1600 H   0  0  0  0  0  0  0  0  0  0  0  0
   -6.4890  -11.5300  -23.0400 H   0  0  0  0  0  0  0  0  0  0  0  0
   -8.4540  -11.5800  -24.5780 H   0  0  0  0  0  0  0  0  0  0  0  0
   -7.6700  -10.5080  -25.6900 H   0  0  0  0  0  0  0  0  0  0  0  0
   -9.0900  -10.7790  -22.2190 H   0  0  0  0  0  0  0  0  0  0  0  0
   -7.6750   -8.0870  -25.2770 H   0  0  0  0  0  0  0  0  0  0  0  0
   -9.9600   -8.8660  -20.9560 H   0  0  0  0  0  0  0  0  0  0  0  0
   -8.6390   -6.1950  -24.0270 H   0  0  0  0  0  0  0  0  0  0  0  0
   -9.7390   -6.5610  -21.8720 H   0  0  0  0  0  0  0  0  0  0  0  0
   -5.9650  -13.6790  -24.2650 N   0  0  0  0  0  0  0  0  0  0  0  0
   -5.6210  -15.0210  -24.7890 C   0  0  2  0  0  0  0  0  0  0  0  0
   -6.8930  -15.8880  -24.7670 C   0  0  0  0  0  0  0  0  0  0  0  0
   -7.6050  -15.8020  -23.7610 O   0  0  0  0  0  0  0  0  0  0  0  0
   -4.6720  -15.7510  -23.7930 C   0  0  0  0  0  0  0  0  0  0  0  0
   -3.2410  -15.2640  -23.6410 C   0  0  0  0  0  0  0  0  0  0  0  0
   -2.9590  -14.1100  -22.8820 C   0  0  0  0  0  0  0  0  0  0  0  0
   -2.1770  -15.9900  -24.2240 C   0  0  0  0  0  0  0  0  0  0  0  0
   -1.6300  -13.6680  -22.7440 C   0  0  0  0  0  0  0  0  0  0  0  0
   -0.8530  -15.5230  -24.1150 C   0  0  0  0  0  0  0  0  0  0  0  0
   -0.5830  -14.3490  -23.3890 C   0  0  0  0  0  0  0  0  0  0  0  0
    0.6860  -13.8570  -23.3390 O   0  0  0  0  0  0  0  0  0  0  0  0
   -6.4070  -13.7090  -23.3600 H   0  0  0  0  0  0  0  0  0  0  0  0
   -5.2130  -14.9830  -25.7970 H   0  0  0  0  0  0  0  0  0  0  0  0
   -4.6130  -16.8040  -24.0770 H   0  0  0  0  0  0  0  0  0  0  0  0
   -5.1140  -15.7580  -22.7950 H   0  0  0  0  0  0  0  0  0  0  0  0
   -3.7510  -13.5500  -22.4080 H   0  0  0  0  0  0  0  0  0  0  0  0
   -2.3770  -16.8730  -24.8110 H   0  0  0  0  0  0  0  0  0  0  0  0
   -1.4140  -12.7840  -22.1600 H   0  0  0  0  0  0  0  0  0  0  0  0
   -0.0470  -16.0410  -24.6130 H   0  0  0  0  0  0  0  0  0  0  0  0
    0.6820  -12.8820  -23.1900 H   0  0  0  0  0  0  0  0  0  0  0  0
   -7.1540  -16.7460  -25.7710 N   0  0  0  0  0  0  0  0  0  0  0  0
   -8.2790  -17.6920  -25.8830 C   0  0  2  0  0  0  0  0  0  0  0  0
   -8.3750  -18.2610  -27.3240 C   0  0  0  0  0  0  0  0  0  0  0  0
   -7.4340  -18.0710  -28.1140 O   0  0  0  0  0  0  0  0  0  0  0  0
   -9.4250  -18.8500  -27.6540 O   0  0  0  0  0  0  0  0  0  0  0  0
   -9.6340  -17.0500  -25.4770 C   0  0  0  0  0  0  0  0  0  0  0  0
   -9.9270  -15.6770  -26.0850 C   0  0  0  0  0  0  0  0  0  0  0  0
   -9.9620  -15.6640  -27.8890 S   0  0  0  0  0  0  0  0  0  0  0  0
   -8.3080  -15.0200  -28.3140 C   0  0  0  0  0  0  0  0  0  0  0  0
   -6.5790  -16.7990  -26.6220 H   0  0  0  0  0  0  0  0  0  0  0  0
   -8.0770  -18.5440  -25.2370 H   0  0  0  0  0  0  0  0  0  0  0  0
  -10.4530  -17.7060  -25.7510 H   0  0  0  0  0  0  0  0  0  0  0  0
   -9.6950  -16.9800  -24.3930 H   0  0  0  0  0  0  0  0  0  0  0  0
  -10.9140  -15.3830  -25.7310 H   0  0  0  0  0  0  0  0  0  0  0  0
   -9.2470  -14.9030  -25.7350 H   0  0  0  0  0  0  0  0  0  0  0  0
   -8.1470  -14.0210  -27.9170 H   0  0  0  0  0  0  0  0  0  0  0  0
   -7.5070  -15.6420  -27.9540 H   0  0  0  0  0  0  0  0  0  0  0  0
   -8.1940  -14.9840  -29.3940 H   0  0  0  0  0  0  0  0  0  0  0  0
  1  2  1  0
  1  8  1  0
  1  9  1  0
  1 10  1  0
  2  3  1  0
  2  5  1  0
  2 11  1  1
  3  4  2  0
  3 17  1  0
  5  6  1  0
  5  7  1  0
  5 12  1  1
  6 13  1  0
  7 14  1  0
  7 15  1  0
  7 16  1  0
 17 18  1  0
 17 26  1  0
 18 19  1  0
 18 21  1  0
 18 27  1  6
 19 20  2  0
 19 39  1  0
 21 22  1  0
 21 28  1  0
 21 29  1  0
 22 23  1  0
 22 30  1  0
 22 31  1  0
 23 24  1  0
 23 32  1  0
 23 33  1  0
 24 25  1  0
 24 34  1  0
 24 35  1  0
 25 36  1  0
 25 37  1  0
 25 38  1  0
 39 40  1  0
 39 48  1  0
 40 41  1  0
 40 43  1  0
 40 49  1  1
 41 42  2  0
 41 56  1  0
 43 44  1  0
 43 50  1  0
 43 51  1  0
 44 45  1  0
 44 52  1  0
 44 53  1  0
 45 46  2  0
 45 47  1  0
 47 54  1  0
 47 55  1  0
 56 57  1  0
 56 65  1  0
 57 58  1  0
 57 60  1  0
 57 66  1  1
 58 59  2  0
 58 71  1  0
 60 61  1  0
 60 67  1  0
 60 68  1  0
 61 62  1  0
 61 69  1  0
 61 70  1  0
 62 63  1  0
 62 64  2  0
 71 72  1  0
 71 80  1  0
 72 73  1  0
 72 75  1  0
 72 81  1  6
 73 74  2  0
 73 86  1  0
 75 76  1  0
 75 82  1  0
 75 83  1  0
 76 77  1  0
 76 84  1  0
 76 85  1  0
 77 78  1  0
 77 79  2  0
 86 87  1  0
 86 97  1  0
 87 88  1  0
 87 90  1  0
 87 98  1  1
 88 89  2  0
 88106  1  0
 90 91  1  0
 90 99  1  0
 90100  1  0
 91 92  2  0
 91 93  1  0
 92 94  1  0
 92101  1  0
 93 95  2  0
 93102  1  0
 94 96  2  0
 94103  1  0
 95 96  1  0
 95104  1  0
 96105  1  0
106107  1  0
106118  1  0
107108  1  0
107110  1  0
107119  1  6
108109  2  0
108127  1  0
110111  1  0
110120  1  0
110121  1  0
111112  2  0
111113  1  0
112114  1  0
112122  1  0
113115  2  0
113123  1  0
114116  2  0
114124  1  0
115116  1  0
115125  1  0
116117  1  0
117126  1  0
127128  1  0
127136  1  0
128129  1  0
128132  1  0
128137  1  1
129130  1  0
129131  2  0
132133  1  0
132138  1  0
132139  1  0
133134  1  0
133140  1  0
133141  1  0
134135  1  0
135142  1  0
135143  1  0
135144  1  0
M  CHG  5   1   1  25   1  63  -1  78  -1 130  -1
M  END
$$$$
